<?xml version="1.0" encoding="UTF-8"?>

<!-- generated on 09/12/19 09:34:50 by Eclipse SUMO netedit Version 1.3.1
<configuration xmlns:xsi="http://www.w3.org/2001/XMLSchema-instance" xsi:noNamespaceSchemaLocation="http://sumo.dlr.de/xsd/netconvertConfiguration.xsd">

    <input>
        <sumo-net-file value="D:\SUMO\od\net\net1\new_net.net.xml"/>
    </input>

    <output>
        <output-file value="D:\SUMO\od\net\net1\new_net.net.xml"/>
    </output>

    <processing>
        <geometry.max-grade.fix value="false"/>
        <offset.disable-normalization value="true"/>
        <opposites.guess.fix-lengths value="true"/>
        <lefthand value="false"/>
    </processing>

    <junctions>
        <no-turnarounds value="true"/>
        <junctions.corner-detail value="5"/>
        <junctions.limit-turn-speed value="5.5"/>
        <rectangular-lane-cut value="false"/>
    </junctions>

    <pedestrian>
        <walkingareas value="false"/>
    </pedestrian>

</configuration>
-->

<net version="1.3" junctionCornerDetail="5" limitTurnSpeed="5.50" xmlns:xsi="http://www.w3.org/2001/XMLSchema-instance" xsi:noNamespaceSchemaLocation="http://sumo.dlr.de/xsd/net_file.xsd">

    <location netOffset="0.00,0.00" convBoundary="-300.00,-300.00,1600.00,1800.00" origBoundary="-10000000000.00,-10000000000.00,10000000000.00,10000000000.00" projParameter="!"/>

    <edge id=":east_0_0" function="internal">
        <lane id=":east_0_0_0" index="0" speed="4.72" length="9.35" shape="1600.00,1495.20 1602.40,1496.80 1603.20,1498.40 1602.40,1500.00 1600.00,1501.60"/>
        <lane id=":east_0_0_1" index="1" speed="4.72" length="9.35" shape="1600.00,1498.40 1602.40,1500.00 1603.20,1501.60 1602.40,1503.20 1600.00,1504.80"/>
    </edge>
    <edge id=":east_1_0" function="internal">
        <lane id=":east_1_0_0" index="0" speed="4.72" length="9.35" shape="1600.00,895.20 1602.40,896.80 1603.20,898.40 1602.40,900.00 1600.00,901.60"/>
        <lane id=":east_1_0_1" index="1" speed="4.72" length="9.35" shape="1600.00,898.40 1602.40,900.00 1603.20,901.60 1602.40,903.20 1600.00,904.80"/>
    </edge>
    <edge id=":east_2_0" function="internal">
        <lane id=":east_2_0_0" index="0" speed="4.72" length="9.35" shape="1600.00,-4.80 1602.40,-3.20 1603.20,-1.60 1602.40,-0.00 1600.00,1.60"/>
        <lane id=":east_2_0_1" index="1" speed="4.72" length="9.35" shape="1600.00,-1.60 1602.40,0.00 1603.20,1.60 1602.40,3.20 1600.00,4.80"/>
    </edge>
    <edge id=":gneJ0_0" function="internal">
        <lane id=":gneJ0_0_0" index="0" speed="13.89" length="8.27" shape="54.00,4.80 51.54,5.30 50.00,6.40 48.46,7.50 46.00,8.00"/>
        <lane id=":gneJ0_0_1" index="1" speed="13.89" length="8.27" shape="54.00,4.80 46.00,4.80"/>
        <lane id=":gneJ0_0_2" index="2" speed="13.89" length="8.27" shape="54.00,1.60 46.00,1.60"/>
    </edge>
    <edge id=":gneJ1_0" function="internal">
        <lane id=":gneJ1_0_0" index="0" speed="7.33" length="11.73" shape="492.00,13.60 491.65,9.75 490.60,7.00 488.85,5.35 486.40,4.80"/>
    </edge>
    <edge id=":gneJ1_1" function="internal">
        <lane id=":gneJ1_1_0" index="0" speed="13.89" length="27.43" shape="492.00,13.60 492.50,4.98 493.60,-1.39 494.70,-7.06 495.20,-13.60"/>
        <lane id=":gneJ1_1_1" index="1" speed="13.89" length="27.43" shape="495.20,13.60 495.70,4.98 496.80,-1.39 497.90,-7.06 498.40,-13.60"/>
    </edge>
    <edge id=":gneJ1_3" function="internal">
        <lane id=":gneJ1_3_0" index="0" speed="10.36" length="24.51" shape="498.40,13.60 499.35,6.95 502.20,2.20 506.95,-0.65 513.60,-1.60"/>
    </edge>
    <edge id=":gneJ1_4" function="internal">
        <lane id=":gneJ1_4_0" index="0" speed="3.65" length="4.67" shape="498.40,13.60 499.20,12.40 500.00,12.00 500.80,12.40 501.60,13.60"/>
    </edge>
    <edge id=":gneJ1_5" function="internal">
        <lane id=":gneJ1_5_0" index="0" speed="7.33" length="11.73" shape="513.60,8.00 509.75,8.35 507.00,9.40 505.35,11.15 504.80,13.60"/>
    </edge>
    <edge id=":gneJ1_6" function="internal">
        <lane id=":gneJ1_6_0" index="0" speed="13.89" length="27.43" shape="513.60,8.00 504.98,7.50 498.61,6.40 492.94,5.30 486.40,4.80"/>
        <lane id=":gneJ1_6_1" index="1" speed="13.89" length="27.43" shape="513.60,4.80 504.98,4.30 498.61,3.20 492.94,2.10 486.40,1.60"/>
    </edge>
    <edge id=":gneJ1_8" function="internal">
        <lane id=":gneJ1_8_0" index="0" speed="10.36" length="24.51" shape="513.60,1.60 506.95,0.65 502.20,-2.20 499.35,-6.95 498.40,-13.60"/>
    </edge>
    <edge id=":gneJ1_9" function="internal">
        <lane id=":gneJ1_9_0" index="0" speed="3.65" length="4.67" shape="513.60,1.60 512.40,0.80 512.00,0.00 512.40,-0.80 513.60,-1.60"/>
    </edge>
    <edge id=":gneJ1_10" function="internal">
        <lane id=":gneJ1_10_0" index="0" speed="7.33" length="11.73" shape="508.00,-13.60 508.35,-9.75 509.40,-7.00 511.15,-5.35 513.60,-4.80"/>
    </edge>
    <edge id=":gneJ1_11" function="internal">
        <lane id=":gneJ1_11_0" index="0" speed="13.89" length="27.43" shape="508.00,-13.60 507.50,-4.98 506.40,1.39 505.30,7.06 504.80,13.60"/>
        <lane id=":gneJ1_11_1" index="1" speed="13.89" length="27.43" shape="504.80,-13.60 504.30,-4.98 503.20,1.39 502.10,7.06 501.60,13.60"/>
    </edge>
    <edge id=":gneJ1_13" function="internal">
        <lane id=":gneJ1_13_0" index="0" speed="10.36" length="24.51" shape="501.60,-13.60 500.65,-6.95 497.80,-2.20 493.05,0.65 486.40,1.60"/>
    </edge>
    <edge id=":gneJ1_14" function="internal">
        <lane id=":gneJ1_14_0" index="0" speed="3.65" length="4.67" shape="501.60,-13.60 500.80,-12.40 500.00,-12.00 499.20,-12.40 498.40,-13.60"/>
    </edge>
    <edge id=":gneJ1_15" function="internal">
        <lane id=":gneJ1_15_0" index="0" speed="7.33" length="11.73" shape="486.40,-8.00 490.25,-8.35 493.00,-9.40 494.65,-11.15 495.20,-13.60"/>
    </edge>
    <edge id=":gneJ1_16" function="internal">
        <lane id=":gneJ1_16_0" index="0" speed="13.89" length="27.43" shape="486.40,-8.00 495.02,-7.50 501.39,-6.40 507.06,-5.30 513.60,-4.80"/>
        <lane id=":gneJ1_16_1" index="1" speed="13.89" length="27.43" shape="486.40,-4.80 495.02,-4.30 501.39,-3.20 507.06,-2.10 513.60,-1.60"/>
    </edge>
    <edge id=":gneJ1_18" function="internal">
        <lane id=":gneJ1_18_0" index="0" speed="10.36" length="24.51" shape="486.40,-1.60 493.05,-0.65 497.80,2.20 500.65,6.95 501.60,13.60"/>
    </edge>
    <edge id=":gneJ1_19" function="internal">
        <lane id=":gneJ1_19_0" index="0" speed="3.65" length="4.67" shape="486.40,-1.60 487.60,-0.80 488.00,0.00 487.60,0.80 486.40,1.60"/>
    </edge>
    <edge id=":gneJ11_0" function="internal">
        <lane id=":gneJ11_0_0" index="0" speed="7.33" length="11.73" shape="492.00,913.60 491.65,909.75 490.60,907.00 488.85,905.35 486.40,904.80"/>
    </edge>
    <edge id=":gneJ11_1" function="internal">
        <lane id=":gneJ11_1_0" index="0" speed="13.89" length="27.43" shape="492.00,913.60 492.50,904.98 493.60,898.61 494.70,892.94 495.20,886.40"/>
        <lane id=":gneJ11_1_1" index="1" speed="13.89" length="27.43" shape="495.20,913.60 495.70,904.98 496.80,898.61 497.90,892.94 498.40,886.40"/>
    </edge>
    <edge id=":gneJ11_3" function="internal">
        <lane id=":gneJ11_3_0" index="0" speed="10.36" length="24.51" shape="498.40,913.60 499.35,906.95 502.20,902.20 506.95,899.35 513.60,898.40"/>
    </edge>
    <edge id=":gneJ11_4" function="internal">
        <lane id=":gneJ11_4_0" index="0" speed="3.65" length="4.67" shape="498.40,913.60 499.20,912.40 500.00,912.00 500.80,912.40 501.60,913.60"/>
    </edge>
    <edge id=":gneJ11_5" function="internal">
        <lane id=":gneJ11_5_0" index="0" speed="7.33" length="11.73" shape="513.60,908.00 509.75,908.35 507.00,909.40 505.35,911.15 504.80,913.60"/>
    </edge>
    <edge id=":gneJ11_6" function="internal">
        <lane id=":gneJ11_6_0" index="0" speed="13.89" length="27.43" shape="513.60,908.00 504.98,907.50 498.61,906.40 492.94,905.30 486.40,904.80"/>
        <lane id=":gneJ11_6_1" index="1" speed="13.89" length="27.43" shape="513.60,904.80 504.98,904.30 498.61,903.20 492.94,902.10 486.40,901.60"/>
    </edge>
    <edge id=":gneJ11_8" function="internal">
        <lane id=":gneJ11_8_0" index="0" speed="10.36" length="24.51" shape="513.60,901.60 506.95,900.65 502.20,897.80 499.35,893.05 498.40,886.40"/>
    </edge>
    <edge id=":gneJ11_9" function="internal">
        <lane id=":gneJ11_9_0" index="0" speed="3.65" length="4.67" shape="513.60,901.60 512.40,900.80 512.00,900.00 512.40,899.20 513.60,898.40"/>
    </edge>
    <edge id=":gneJ11_10" function="internal">
        <lane id=":gneJ11_10_0" index="0" speed="7.33" length="11.73" shape="508.00,886.40 508.35,890.25 509.40,893.00 511.15,894.65 513.60,895.20"/>
    </edge>
    <edge id=":gneJ11_11" function="internal">
        <lane id=":gneJ11_11_0" index="0" speed="13.89" length="27.43" shape="508.00,886.40 507.50,895.02 506.40,901.39 505.30,907.06 504.80,913.60"/>
        <lane id=":gneJ11_11_1" index="1" speed="13.89" length="27.43" shape="504.80,886.40 504.30,895.02 503.20,901.39 502.10,907.06 501.60,913.60"/>
    </edge>
    <edge id=":gneJ11_13" function="internal">
        <lane id=":gneJ11_13_0" index="0" speed="10.36" length="24.51" shape="501.60,886.40 500.65,893.05 497.80,897.80 493.05,900.65 486.40,901.60"/>
    </edge>
    <edge id=":gneJ11_14" function="internal">
        <lane id=":gneJ11_14_0" index="0" speed="3.65" length="4.67" shape="501.60,886.40 500.80,887.60 500.00,888.00 499.20,887.60 498.40,886.40"/>
    </edge>
    <edge id=":gneJ11_15" function="internal">
        <lane id=":gneJ11_15_0" index="0" speed="7.33" length="11.73" shape="486.40,892.00 490.25,891.65 493.00,890.60 494.65,888.85 495.20,886.40"/>
    </edge>
    <edge id=":gneJ11_16" function="internal">
        <lane id=":gneJ11_16_0" index="0" speed="13.89" length="27.43" shape="486.40,892.00 495.02,892.50 501.39,893.60 507.06,894.70 513.60,895.20"/>
        <lane id=":gneJ11_16_1" index="1" speed="13.89" length="27.43" shape="486.40,895.20 495.02,895.70 501.39,896.80 507.06,897.90 513.60,898.40"/>
    </edge>
    <edge id=":gneJ11_18" function="internal">
        <lane id=":gneJ11_18_0" index="0" speed="10.36" length="24.51" shape="486.40,898.40 493.05,899.35 497.80,902.20 500.65,906.95 501.60,913.60"/>
    </edge>
    <edge id=":gneJ11_19" function="internal">
        <lane id=":gneJ11_19_0" index="0" speed="3.65" length="4.67" shape="486.40,898.40 487.60,899.20 488.00,900.00 487.60,900.80 486.40,901.60"/>
    </edge>
    <edge id=":gneJ16_0" function="internal">
        <lane id=":gneJ16_0_0" index="0" speed="13.89" length="8.54" shape="446.00,895.20 448.46,894.70 450.00,893.60 451.54,892.50 454.00,892.00"/>
        <lane id=":gneJ16_0_1" index="1" speed="13.89" length="8.54" shape="446.00,898.40 448.46,897.90 450.00,896.80 451.54,895.70 454.00,895.20"/>
        <lane id=":gneJ16_0_2" index="2" speed="13.89" length="8.54" shape="446.00,898.40 454.00,898.40"/>
    </edge>
    <edge id=":gneJ17_0" function="internal">
        <lane id=":gneJ17_0_0" index="0" speed="13.89" length="8.27" shape="554.00,904.80 551.54,905.30 550.00,906.40 548.46,907.50 546.00,908.00"/>
        <lane id=":gneJ17_0_1" index="1" speed="13.89" length="8.27" shape="554.00,904.80 546.00,904.80"/>
        <lane id=":gneJ17_0_2" index="2" speed="13.89" length="8.27" shape="554.00,901.60 546.00,901.60"/>
    </edge>
    <edge id=":gneJ18_0" function="internal">
        <lane id=":gneJ18_0_0" index="0" speed="13.89" length="8.54" shape="495.20,954.00 494.70,951.54 493.60,950.00 492.50,948.46 492.00,946.00"/>
        <lane id=":gneJ18_0_1" index="1" speed="13.89" length="8.54" shape="498.40,954.00 497.90,951.54 496.80,950.00 495.70,948.46 495.20,946.00"/>
        <lane id=":gneJ18_0_2" index="2" speed="13.89" length="8.54" shape="498.40,954.00 498.40,946.00"/>
    </edge>
    <edge id=":gneJ19_0" function="internal">
        <lane id=":gneJ19_0_0" index="0" speed="13.89" length="8.27" shape="54.00,904.80 51.54,905.30 50.00,906.40 48.46,907.50 46.00,908.00"/>
        <lane id=":gneJ19_0_1" index="1" speed="13.89" length="8.27" shape="54.00,904.80 46.00,904.80"/>
        <lane id=":gneJ19_0_2" index="2" speed="13.89" length="8.27" shape="54.00,901.60 46.00,901.60"/>
    </edge>
    <edge id=":gneJ2_0" function="internal">
        <lane id=":gneJ2_0_0" index="0" speed="13.89" length="8.27" shape="446.00,-4.80 448.46,-5.30 450.00,-6.40 451.54,-7.50 454.00,-8.00"/>
        <lane id=":gneJ2_0_1" index="1" speed="13.89" length="8.27" shape="446.00,-4.80 454.00,-4.80"/>
        <lane id=":gneJ2_0_2" index="2" speed="13.89" length="8.27" shape="446.00,-1.60 454.00,-1.60"/>
    </edge>
    <edge id=":gneJ20_0" function="internal">
        <lane id=":gneJ20_0_0" index="0" speed="13.89" length="8.27" shape="1246.00,895.20 1248.46,894.70 1250.00,893.60 1251.54,892.50 1254.00,892.00"/>
        <lane id=":gneJ20_0_1" index="1" speed="13.89" length="8.27" shape="1246.00,895.20 1254.00,895.20"/>
        <lane id=":gneJ20_0_2" index="2" speed="13.89" length="8.27" shape="1246.00,898.40 1254.00,898.40"/>
    </edge>
    <edge id=":gneJ21_0" function="internal">
        <lane id=":gneJ21_0_0" index="0" speed="13.89" length="8.27" shape="504.80,1446.00 505.30,1448.46 506.40,1450.00 507.50,1451.54 508.00,1454.00"/>
        <lane id=":gneJ21_0_1" index="1" speed="13.89" length="8.27" shape="504.80,1446.00 504.80,1454.00"/>
        <lane id=":gneJ21_0_2" index="2" speed="13.89" length="8.27" shape="501.60,1446.00 501.60,1454.00"/>
    </edge>
    <edge id=":gneJ22_0" function="internal">
        <lane id=":gneJ22_0_0" index="0" speed="7.33" length="11.73" shape="492.00,1513.60 491.65,1509.75 490.60,1507.00 488.85,1505.35 486.40,1504.80"/>
    </edge>
    <edge id=":gneJ22_1" function="internal">
        <lane id=":gneJ22_1_0" index="0" speed="13.89" length="27.43" shape="492.00,1513.60 492.50,1504.98 493.60,1498.61 494.70,1492.94 495.20,1486.40"/>
        <lane id=":gneJ22_1_1" index="1" speed="13.89" length="27.43" shape="495.20,1513.60 495.70,1504.98 496.80,1498.61 497.90,1492.94 498.40,1486.40"/>
    </edge>
    <edge id=":gneJ22_3" function="internal">
        <lane id=":gneJ22_3_0" index="0" speed="10.36" length="24.51" shape="498.40,1513.60 499.35,1506.95 502.20,1502.20 506.95,1499.35 513.60,1498.40"/>
    </edge>
    <edge id=":gneJ22_4" function="internal">
        <lane id=":gneJ22_4_0" index="0" speed="3.65" length="4.67" shape="498.40,1513.60 499.20,1512.40 500.00,1512.00 500.80,1512.40 501.60,1513.60"/>
    </edge>
    <edge id=":gneJ22_5" function="internal">
        <lane id=":gneJ22_5_0" index="0" speed="7.33" length="11.73" shape="513.60,1508.00 509.75,1508.35 507.00,1509.40 505.35,1511.15 504.80,1513.60"/>
    </edge>
    <edge id=":gneJ22_6" function="internal">
        <lane id=":gneJ22_6_0" index="0" speed="13.89" length="27.43" shape="513.60,1508.00 504.98,1507.50 498.61,1506.40 492.94,1505.30 486.40,1504.80"/>
        <lane id=":gneJ22_6_1" index="1" speed="13.89" length="27.43" shape="513.60,1504.80 504.98,1504.30 498.61,1503.20 492.94,1502.10 486.40,1501.60"/>
    </edge>
    <edge id=":gneJ22_8" function="internal">
        <lane id=":gneJ22_8_0" index="0" speed="10.36" length="24.51" shape="513.60,1501.60 506.95,1500.65 502.20,1497.80 499.35,1493.05 498.40,1486.40"/>
    </edge>
    <edge id=":gneJ22_9" function="internal">
        <lane id=":gneJ22_9_0" index="0" speed="3.65" length="4.67" shape="513.60,1501.60 512.40,1500.80 512.00,1500.00 512.40,1499.20 513.60,1498.40"/>
    </edge>
    <edge id=":gneJ22_10" function="internal">
        <lane id=":gneJ22_10_0" index="0" speed="7.33" length="11.73" shape="508.00,1486.40 508.35,1490.25 509.40,1493.00 511.15,1494.65 513.60,1495.20"/>
    </edge>
    <edge id=":gneJ22_11" function="internal">
        <lane id=":gneJ22_11_0" index="0" speed="13.89" length="27.43" shape="508.00,1486.40 507.50,1495.02 506.40,1501.39 505.30,1507.06 504.80,1513.60"/>
        <lane id=":gneJ22_11_1" index="1" speed="13.89" length="27.43" shape="504.80,1486.40 504.30,1495.02 503.20,1501.39 502.10,1507.06 501.60,1513.60"/>
    </edge>
    <edge id=":gneJ22_13" function="internal">
        <lane id=":gneJ22_13_0" index="0" speed="10.36" length="24.51" shape="501.60,1486.40 500.65,1493.05 497.80,1497.80 493.05,1500.65 486.40,1501.60"/>
    </edge>
    <edge id=":gneJ22_14" function="internal">
        <lane id=":gneJ22_14_0" index="0" speed="3.65" length="4.67" shape="501.60,1486.40 500.80,1487.60 500.00,1488.00 499.20,1487.60 498.40,1486.40"/>
    </edge>
    <edge id=":gneJ22_15" function="internal">
        <lane id=":gneJ22_15_0" index="0" speed="7.33" length="11.73" shape="486.40,1492.00 490.25,1491.65 493.00,1490.60 494.65,1488.85 495.20,1486.40"/>
    </edge>
    <edge id=":gneJ22_16" function="internal">
        <lane id=":gneJ22_16_0" index="0" speed="13.89" length="27.43" shape="486.40,1492.00 495.02,1492.50 501.39,1493.60 507.06,1494.70 513.60,1495.20"/>
        <lane id=":gneJ22_16_1" index="1" speed="13.89" length="27.43" shape="486.40,1495.20 495.02,1495.70 501.39,1496.80 507.06,1497.90 513.60,1498.40"/>
    </edge>
    <edge id=":gneJ22_18" function="internal">
        <lane id=":gneJ22_18_0" index="0" speed="10.36" length="24.51" shape="486.40,1498.40 493.05,1499.35 497.80,1502.20 500.65,1506.95 501.60,1513.60"/>
    </edge>
    <edge id=":gneJ22_19" function="internal">
        <lane id=":gneJ22_19_0" index="0" speed="3.65" length="4.67" shape="486.40,1498.40 487.60,1499.20 488.00,1500.00 487.60,1500.80 486.40,1501.60"/>
    </edge>
    <edge id=":gneJ26_0" function="internal">
        <lane id=":gneJ26_0_0" index="0" speed="13.89" length="8.27" shape="495.20,1554.00 494.70,1551.54 493.60,1550.00 492.50,1548.46 492.00,1546.00"/>
        <lane id=":gneJ26_0_1" index="1" speed="13.89" length="8.27" shape="495.20,1554.00 495.20,1546.00"/>
        <lane id=":gneJ26_0_2" index="2" speed="13.89" length="8.27" shape="498.40,1554.00 498.40,1546.00"/>
    </edge>
    <edge id=":gneJ27_0" function="internal">
        <lane id=":gneJ27_0_0" index="0" speed="13.89" length="8.27" shape="554.00,1504.80 551.54,1505.30 550.00,1506.40 548.46,1507.50 546.00,1508.00"/>
        <lane id=":gneJ27_0_1" index="1" speed="13.89" length="8.27" shape="554.00,1504.80 546.00,1504.80"/>
        <lane id=":gneJ27_0_2" index="2" speed="13.89" length="8.27" shape="554.00,1501.60 546.00,1501.60"/>
    </edge>
    <edge id=":gneJ28_0" function="internal">
        <lane id=":gneJ28_0_0" index="0" speed="13.89" length="8.27" shape="446.00,1495.20 448.46,1494.70 450.00,1493.60 451.54,1492.50 454.00,1492.00"/>
        <lane id=":gneJ28_0_1" index="1" speed="13.89" length="8.27" shape="446.00,1495.20 454.00,1495.20"/>
        <lane id=":gneJ28_0_2" index="2" speed="13.89" length="8.27" shape="446.00,1498.40 454.00,1498.40"/>
    </edge>
    <edge id=":gneJ29_0" function="internal">
        <lane id=":gneJ29_0_0" index="0" speed="7.33" length="11.73" shape="1292.00,1513.60 1291.65,1509.75 1290.60,1507.00 1288.85,1505.35 1286.40,1504.80"/>
    </edge>
    <edge id=":gneJ29_1" function="internal">
        <lane id=":gneJ29_1_0" index="0" speed="13.89" length="27.43" shape="1292.00,1513.60 1292.50,1504.98 1293.60,1498.61 1294.70,1492.94 1295.20,1486.40"/>
        <lane id=":gneJ29_1_1" index="1" speed="13.89" length="27.43" shape="1295.20,1513.60 1295.70,1504.98 1296.80,1498.61 1297.90,1492.94 1298.40,1486.40"/>
    </edge>
    <edge id=":gneJ29_3" function="internal">
        <lane id=":gneJ29_3_0" index="0" speed="10.36" length="24.51" shape="1298.40,1513.60 1299.35,1506.95 1302.20,1502.20 1306.95,1499.35 1313.60,1498.40"/>
    </edge>
    <edge id=":gneJ29_4" function="internal">
        <lane id=":gneJ29_4_0" index="0" speed="3.65" length="4.67" shape="1298.40,1513.60 1299.20,1512.40 1300.00,1512.00 1300.80,1512.40 1301.60,1513.60"/>
    </edge>
    <edge id=":gneJ29_5" function="internal">
        <lane id=":gneJ29_5_0" index="0" speed="7.33" length="11.73" shape="1313.60,1508.00 1309.75,1508.35 1307.00,1509.40 1305.35,1511.15 1304.80,1513.60"/>
    </edge>
    <edge id=":gneJ29_6" function="internal">
        <lane id=":gneJ29_6_0" index="0" speed="13.89" length="27.43" shape="1313.60,1508.00 1304.98,1507.50 1298.61,1506.40 1292.94,1505.30 1286.40,1504.80"/>
        <lane id=":gneJ29_6_1" index="1" speed="13.89" length="27.43" shape="1313.60,1504.80 1304.98,1504.30 1298.61,1503.20 1292.94,1502.10 1286.40,1501.60"/>
    </edge>
    <edge id=":gneJ29_8" function="internal">
        <lane id=":gneJ29_8_0" index="0" speed="10.36" length="24.51" shape="1313.60,1501.60 1306.95,1500.65 1302.20,1497.80 1299.35,1493.05 1298.40,1486.40"/>
    </edge>
    <edge id=":gneJ29_9" function="internal">
        <lane id=":gneJ29_9_0" index="0" speed="3.65" length="4.67" shape="1313.60,1501.60 1312.40,1500.80 1312.00,1500.00 1312.40,1499.20 1313.60,1498.40"/>
    </edge>
    <edge id=":gneJ29_10" function="internal">
        <lane id=":gneJ29_10_0" index="0" speed="7.33" length="11.73" shape="1308.00,1486.40 1308.35,1490.25 1309.40,1493.00 1311.15,1494.65 1313.60,1495.20"/>
    </edge>
    <edge id=":gneJ29_11" function="internal">
        <lane id=":gneJ29_11_0" index="0" speed="13.89" length="27.43" shape="1308.00,1486.40 1307.50,1495.02 1306.40,1501.39 1305.30,1507.06 1304.80,1513.60"/>
        <lane id=":gneJ29_11_1" index="1" speed="13.89" length="27.43" shape="1304.80,1486.40 1304.30,1495.02 1303.20,1501.39 1302.10,1507.06 1301.60,1513.60"/>
    </edge>
    <edge id=":gneJ29_13" function="internal">
        <lane id=":gneJ29_13_0" index="0" speed="10.36" length="24.51" shape="1301.60,1486.40 1300.65,1493.05 1297.80,1497.80 1293.05,1500.65 1286.40,1501.60"/>
    </edge>
    <edge id=":gneJ29_14" function="internal">
        <lane id=":gneJ29_14_0" index="0" speed="3.65" length="4.67" shape="1301.60,1486.40 1300.80,1487.60 1300.00,1488.00 1299.20,1487.60 1298.40,1486.40"/>
    </edge>
    <edge id=":gneJ29_15" function="internal">
        <lane id=":gneJ29_15_0" index="0" speed="7.33" length="11.73" shape="1286.40,1492.00 1290.25,1491.65 1293.00,1490.60 1294.65,1488.85 1295.20,1486.40"/>
    </edge>
    <edge id=":gneJ29_16" function="internal">
        <lane id=":gneJ29_16_0" index="0" speed="13.89" length="27.43" shape="1286.40,1492.00 1295.02,1492.50 1301.39,1493.60 1307.06,1494.70 1313.60,1495.20"/>
        <lane id=":gneJ29_16_1" index="1" speed="13.89" length="27.43" shape="1286.40,1495.20 1295.02,1495.70 1301.39,1496.80 1307.06,1497.90 1313.60,1498.40"/>
    </edge>
    <edge id=":gneJ29_18" function="internal">
        <lane id=":gneJ29_18_0" index="0" speed="10.36" length="24.51" shape="1286.40,1498.40 1293.05,1499.35 1297.80,1502.20 1300.65,1506.95 1301.60,1513.60"/>
    </edge>
    <edge id=":gneJ29_19" function="internal">
        <lane id=":gneJ29_19_0" index="0" speed="3.65" length="4.67" shape="1286.40,1498.40 1287.60,1499.20 1288.00,1500.00 1287.60,1500.80 1286.40,1501.60"/>
    </edge>
    <edge id=":gneJ3_0" function="internal">
        <lane id=":gneJ3_0_0" index="0" speed="13.89" length="8.27" shape="554.00,4.80 551.54,5.30 550.00,6.40 548.46,7.50 546.00,8.00"/>
        <lane id=":gneJ3_0_1" index="1" speed="13.89" length="8.27" shape="554.00,4.80 546.00,4.80"/>
        <lane id=":gneJ3_0_2" index="2" speed="13.89" length="8.27" shape="554.00,1.60 546.00,1.60"/>
    </edge>
    <edge id=":gneJ32_0" function="internal">
        <lane id=":gneJ32_0_0" index="0" speed="13.89" length="8.27" shape="1246.00,1495.20 1248.46,1494.70 1250.00,1493.60 1251.54,1492.50 1254.00,1492.00"/>
        <lane id=":gneJ32_0_1" index="1" speed="13.89" length="8.27" shape="1246.00,1495.20 1254.00,1495.20"/>
        <lane id=":gneJ32_0_2" index="2" speed="13.89" length="8.27" shape="1246.00,1498.40 1254.00,1498.40"/>
    </edge>
    <edge id=":gneJ35_0" function="internal">
        <lane id=":gneJ35_0_0" index="0" speed="7.33" length="11.73" shape="-8.00,913.60 -8.35,909.75 -9.40,907.00 -11.15,905.35 -13.60,904.80"/>
    </edge>
    <edge id=":gneJ35_1" function="internal">
        <lane id=":gneJ35_1_0" index="0" speed="13.89" length="27.43" shape="-8.00,913.60 -7.50,904.98 -6.40,898.61 -5.30,892.94 -4.80,886.40"/>
        <lane id=":gneJ35_1_1" index="1" speed="13.89" length="27.43" shape="-4.80,913.60 -4.30,904.98 -3.20,898.61 -2.10,892.94 -1.60,886.40"/>
    </edge>
    <edge id=":gneJ35_3" function="internal">
        <lane id=":gneJ35_3_0" index="0" speed="10.36" length="24.51" shape="-1.60,913.60 -0.65,906.95 2.20,902.20 6.95,899.35 13.60,898.40"/>
    </edge>
    <edge id=":gneJ35_4" function="internal">
        <lane id=":gneJ35_4_0" index="0" speed="3.65" length="4.67" shape="-1.60,913.60 -0.80,912.40 0.00,912.00 0.80,912.40 1.60,913.60"/>
    </edge>
    <edge id=":gneJ35_5" function="internal">
        <lane id=":gneJ35_5_0" index="0" speed="7.33" length="11.73" shape="13.60,908.00 9.75,908.35 7.00,909.40 5.35,911.15 4.80,913.60"/>
    </edge>
    <edge id=":gneJ35_6" function="internal">
        <lane id=":gneJ35_6_0" index="0" speed="13.89" length="27.43" shape="13.60,908.00 4.98,907.50 -1.39,906.40 -7.06,905.30 -13.60,904.80"/>
        <lane id=":gneJ35_6_1" index="1" speed="13.89" length="27.43" shape="13.60,904.80 4.98,904.30 -1.39,903.20 -7.06,902.10 -13.60,901.60"/>
    </edge>
    <edge id=":gneJ35_8" function="internal">
        <lane id=":gneJ35_8_0" index="0" speed="10.36" length="24.51" shape="13.60,901.60 6.95,900.65 2.20,897.80 -0.65,893.05 -1.60,886.40"/>
    </edge>
    <edge id=":gneJ35_9" function="internal">
        <lane id=":gneJ35_9_0" index="0" speed="3.65" length="4.67" shape="13.60,901.60 12.40,900.80 12.00,900.00 12.40,899.20 13.60,898.40"/>
    </edge>
    <edge id=":gneJ35_10" function="internal">
        <lane id=":gneJ35_10_0" index="0" speed="7.33" length="11.73" shape="8.00,886.40 8.35,890.25 9.40,893.00 11.15,894.65 13.60,895.20"/>
    </edge>
    <edge id=":gneJ35_11" function="internal">
        <lane id=":gneJ35_11_0" index="0" speed="13.89" length="27.43" shape="8.00,886.40 7.50,895.02 6.40,901.39 5.30,907.06 4.80,913.60"/>
        <lane id=":gneJ35_11_1" index="1" speed="13.89" length="27.43" shape="4.80,886.40 4.30,895.02 3.20,901.39 2.10,907.06 1.60,913.60"/>
    </edge>
    <edge id=":gneJ35_13" function="internal">
        <lane id=":gneJ35_13_0" index="0" speed="10.36" length="24.51" shape="1.60,886.40 0.65,893.05 -2.20,897.80 -6.95,900.65 -13.60,901.60"/>
    </edge>
    <edge id=":gneJ35_14" function="internal">
        <lane id=":gneJ35_14_0" index="0" speed="3.65" length="4.67" shape="1.60,886.40 0.80,887.60 0.00,888.00 -0.80,887.60 -1.60,886.40"/>
    </edge>
    <edge id=":gneJ35_15" function="internal">
        <lane id=":gneJ35_15_0" index="0" speed="7.33" length="11.73" shape="-13.60,892.00 -9.75,891.65 -7.00,890.60 -5.35,888.85 -4.80,886.40"/>
    </edge>
    <edge id=":gneJ35_16" function="internal">
        <lane id=":gneJ35_16_0" index="0" speed="13.89" length="27.43" shape="-13.60,892.00 -4.98,892.50 1.39,893.60 7.06,894.70 13.60,895.20"/>
        <lane id=":gneJ35_16_1" index="1" speed="13.89" length="27.43" shape="-13.60,895.20 -4.98,895.70 1.39,896.80 7.06,897.90 13.60,898.40"/>
    </edge>
    <edge id=":gneJ35_18" function="internal">
        <lane id=":gneJ35_18_0" index="0" speed="10.36" length="24.51" shape="-13.60,898.40 -6.95,899.35 -2.20,902.20 0.65,906.95 1.60,913.60"/>
    </edge>
    <edge id=":gneJ35_19" function="internal">
        <lane id=":gneJ35_19_0" index="0" speed="3.65" length="4.67" shape="-13.60,898.40 -12.40,899.20 -12.00,900.00 -12.40,900.80 -13.60,901.60"/>
    </edge>
    <edge id=":gneJ38_0" function="internal">
        <lane id=":gneJ38_0_0" index="0" speed="7.33" length="11.73" shape="-8.00,13.60 -8.35,9.75 -9.40,7.00 -11.15,5.35 -13.60,4.80"/>
    </edge>
    <edge id=":gneJ38_1" function="internal">
        <lane id=":gneJ38_1_0" index="0" speed="13.89" length="27.43" shape="-8.00,13.60 -7.50,4.98 -6.40,-1.39 -5.30,-7.06 -4.80,-13.60"/>
        <lane id=":gneJ38_1_1" index="1" speed="13.89" length="27.43" shape="-4.80,13.60 -4.30,4.98 -3.20,-1.39 -2.10,-7.06 -1.60,-13.60"/>
    </edge>
    <edge id=":gneJ38_3" function="internal">
        <lane id=":gneJ38_3_0" index="0" speed="10.36" length="24.51" shape="-1.60,13.60 -0.65,6.95 2.20,2.20 6.95,-0.65 13.60,-1.60"/>
    </edge>
    <edge id=":gneJ38_4" function="internal">
        <lane id=":gneJ38_4_0" index="0" speed="3.65" length="4.67" shape="-1.60,13.60 -0.80,12.40 -0.00,12.00 0.80,12.40 1.60,13.60"/>
    </edge>
    <edge id=":gneJ38_5" function="internal">
        <lane id=":gneJ38_5_0" index="0" speed="7.33" length="11.73" shape="13.60,8.00 9.75,8.35 7.00,9.40 5.35,11.15 4.80,13.60"/>
    </edge>
    <edge id=":gneJ38_6" function="internal">
        <lane id=":gneJ38_6_0" index="0" speed="13.89" length="27.43" shape="13.60,8.00 4.98,7.50 -1.39,6.40 -7.06,5.30 -13.60,4.80"/>
        <lane id=":gneJ38_6_1" index="1" speed="13.89" length="27.43" shape="13.60,4.80 4.98,4.30 -1.39,3.20 -7.06,2.10 -13.60,1.60"/>
    </edge>
    <edge id=":gneJ38_8" function="internal">
        <lane id=":gneJ38_8_0" index="0" speed="10.36" length="24.51" shape="13.60,1.60 6.95,0.65 2.20,-2.20 -0.65,-6.95 -1.60,-13.60"/>
    </edge>
    <edge id=":gneJ38_9" function="internal">
        <lane id=":gneJ38_9_0" index="0" speed="3.65" length="4.67" shape="13.60,1.60 12.40,0.80 12.00,0.00 12.40,-0.80 13.60,-1.60"/>
    </edge>
    <edge id=":gneJ38_10" function="internal">
        <lane id=":gneJ38_10_0" index="0" speed="7.33" length="11.73" shape="8.00,-13.60 8.35,-9.75 9.40,-7.00 11.15,-5.35 13.60,-4.80"/>
    </edge>
    <edge id=":gneJ38_11" function="internal">
        <lane id=":gneJ38_11_0" index="0" speed="13.89" length="27.43" shape="8.00,-13.60 7.50,-4.98 6.40,1.39 5.30,7.06 4.80,13.60"/>