<?xml version="1.0" encoding="UTF-8"?>

<!-- generated on 09/11/19 20:10:12 by Eclipse SUMO Version 1.3.1
-->

<configuration xmlns:xsi="http://www.w3.org/2001/XMLSchema-instance" xsi:noNamespaceSchemaLocation="http://sumo.dlr.de/xsd/sumoConfiguration.xsd">

    <input>
        <net-file value="new_net.net.xml"/>
        <route-files value="../od.trips.xml"/>
        <additional-files value="det.add.xml"/>
    </input>

</configuration>
